                                   MODFLOW 6
                U.S. GEOLOGICAL SURVEY MODULAR HYDROLOGIC MODEL
                          GROUNDWATER FLOW MODEL (GWF)
                        VERSION 6.4.1 Release 12/09/2022

   MODFLOW 6 compiled Dec 10 2022 04:48:56 with Intel(R) Fortran Intel(R) 64
   Compiler Classic for applications running on Intel(R) 64, Version 2021.7.0
                             Build 20220726_000000

This software has been approved for release by the U.S. Geological 
Survey (USGS). Although the software has been subjected to rigorous 
review, the USGS reserves the right to update the software as needed 
pursuant to further analysis and review. No warranty, expressed or 
implied, is made by the USGS or the U.S. Government as to the 
functionality of the software and related material nor shall the 
fact of release constitute any such warranty. Furthermore, the 
software is released on condition that neither the USGS nor the U.S. 
Government shall be held liable for any damages resulting from its 
authorized or unauthorized use. Also refer to the USGS Water 
Resources Software User Rights Notice for complete use, copyright, 
and distribution information.


As a work of the United States Government, this USGS product is 
in the public domain within the United States. You can copy, 
modify, distribute, and perform the work, even for commercial 
purposes, all without asking permission. Additionally, USGS 
waives copyright and related rights in the work worldwide 
through CC0 1.0 Universal Public Domain Dedication 
(https://creativecommons.org/publicdomain/zero/1.0/).

The following GNU Lesser General Public License (LGPL) libraries
are used in this USGS product:

    SPARSKIT version 2.0
      ilut, luson, and qsplit 
      (https://www-users.cse.umn.edu/~saad/software/SPARSKIT/)

    RCM - Reverse Cuthill McKee Ordering
      (https://people.math.sc.edu/Burkardt/f_src/rcm/rcm.html)

    BLAS - Basic Linear Algebra Subprograms Level 1
      (https://people.math.sc.edu/Burkardt/f_src/blas1_d/blas1_d.html)

    SPARSEKIT - Sparse Matrix Utility Package
      amux, dperm, dvperm, rperm, and cperm
      (https://people.sc.fsu.edu/~jburkardt/f77_src/sparsekit/sparsekit.html)

The following BSD-3 License libraries are used in this USGS product:

    Modern Fortran DAG Library
      Copyright (c) 2018, Jacob Williams
      All rights reserved.
      (https://github.com/jacobwilliams/daglib)

MODFLOW 6 compiler options: -Ilinux/obj_mf6 -O2 -no-heap-arrays -fpe0
-traceback -fpp -module linux/mod_mf6/ -c -o linux/obj_mf6/compilerversion.o

System command used to initiate simulation:
/home/vcant/.local/share/flopy/bin/mf6

MODFLOW was compiled using uniform precision.

Real Variables
  KIND: 8
  TINY (smallest non-zero value):    2.225074-308
  HUGE (largest value):    1.797693+308
  PRECISION: 15
  SIZE IN BITS: 64

Integer Variables
  KIND: 4
  HUGE (largest value): 2147483647
  SIZE IN BITS: 32

Long Integer Variables
  KIND: 8
  HUGE (largest value): 9223372036854775807
  SIZE IN BITS: 64

Logical Variables
  KIND: 4
  SIZE IN BITS: 32
 

 OPENED model.oc
 FILE TYPE:OC6                    UNIT 1005   STATUS:OLD                 
 FORMAT:FORMATTED              ACCESS:SEQUENTIAL          
 ACTION:READ                


 OPENED model.chd
 FILE TYPE:CHD6                   UNIT 1006   STATUS:OLD                 
 FORMAT:FORMATTED              ACCESS:SEQUENTIAL          
 ACTION:READ                


 OPENED model.npf
 FILE TYPE:NPF6                   UNIT 1007   STATUS:OLD                 
 FORMAT:FORMATTED              ACCESS:SEQUENTIAL          
 ACTION:READ                


 OPENED model.ic
 FILE TYPE:IC6                    UNIT 1008   STATUS:OLD                 
 FORMAT:FORMATTED              ACCESS:SEQUENTIAL          
 ACTION:READ                


 OPENED model.dis
 FILE TYPE:DIS6                   UNIT 1009   STATUS:OLD                 
 FORMAT:FORMATTED              ACCESS:SEQUENTIAL          
 ACTION:READ                


 OPENED model.wel
 FILE TYPE:WEL6                   UNIT 1010   STATUS:OLD                 
 FORMAT:FORMATTED              ACCESS:SEQUENTIAL          
 ACTION:READ                

 NAMEFILE OPTIONS:
    FLOWS WILL BE SAVED TO BUDGET FILE SPECIFIED IN OUTPUT CONTROL
    NEWTON-RAPHSON method enabled for the model.
    NEWTON-RAPHSON UNDER-RELAXATION based on the bottom elevation of the model will be applied to the model.

 DIS -- STRUCTURED GRID DISCRETIZATION PACKAGE, VERSION 2 : 3/27/2014 - INPUT READ FROM UNIT 1009

 Loading input for MODEL/DIS
 # File generated by Flopy version 3.3.7 on 08/25/2023 at 16:03:15.
   NLAY = 20
   NROW = 101
   NCOL = 101
   DELR = 4.000000000000000
   DELC = 4.000000000000000
   TOP = .000000000000000
   BOTM = variable 3D double precision array ranging from -50.00000000000000 to -2.500000000000000
 Loading input complete...


 NPF -- NODE PROPERTY FLOW PACKAGE, VERSION 1, 3/30/2015 INPUT READ FROM UNIT 1007

 Loading input for MODEL/NPF
 # File generated by Flopy version 3.3.7 on 08/25/2023 at 16:03:15.
   ISAVSPDIS = 1
   ICELLTYPE = 1
   K = variable 1D double precision array ranging from .1000000000000000E-06 to .1000000000000000E-02
 Loading input complete...

 Setting Discretization Options
 End Setting Discretization Options

 Setting Discretization Dimensions
    NLAY = 20
    NROW = 101
    NCOL = 101
 End Setting Discretization Dimensions

 Setting Discretization Griddata
    DELR set from input file
    DELC set from input file
    TOP set from input file
    BOTM set from input file
 End Setting Discretization Griddata

 Setting NPF Options
    Specific discharge will be calculated at cell centers and written to DATA-SPDIS in budget file when requested.
 End Setting NPF Options

 Setting NPF Griddata
    ICELLTYPE set from input file
    K set from input file
    K33 not provided.  Setting K33 = K.
    K22 not provided.  Setting K22 = K.
 End Setting NPF Griddata


 WEL   -- WEL PACKAGE, VERSION 8, 2/22/2014 INPUT READ FROM UNIT 1010
 # File generated by Flopy version 3.3.7 on 08/25/2023 at 16:03:16.

 PROCESSING WEL OPTIONS
    AUXILIARY WEL VARIABLE: IFACE           
 END OF WEL OPTIONS

 PROCESSING WEL DIMENSIONS
    MAXBOUND =       2
 END OF WEL DIMENSIONS

 CHD   -- CHD PACKAGE, VERSION 8, 2/22/2014 INPUT READ FROM UNIT 1006
 # File generated by Flopy version 3.3.7 on 08/25/2023 at 16:03:16.

 PROCESSING CHD OPTIONS
    AUXILIARY CHD VARIABLE: IFACE           
 END OF CHD OPTIONS

 PROCESSING CHD DIMENSIONS
    MAXBOUND =    4040
 END OF CHD DIMENSIONS

 IC -- INITIAL CONDITIONS PACKAGE, VERSION 8, 3/28/2015 INPUT READ FROM UNIT 1008
 # File generated by Flopy version 3.3.7 on 08/25/2023 at 16:03:15.
 PROCESSING GRIDDATA
 END PROCESSING GRIDDATA
    BINARY GRID INFORMATION WILL BE WRITTEN TO:
      UNIT NUMBER: 1012
      FILE NAME: /mnt/c/Users/vcant/OneDrive/Kassel/secunda/src/particle_track/MODFLOW_testmodels/hysim_model_test/model.dis.grb

 OPENED /mnt/c/Users/vcant/OneDrive/Kassel/secunda/src/particle_track/MODFLOW_testmodels/hysim_model_test/model.dis.grb
 FILE TYPE:DATA(BINARY)   UNIT 1012   STATUS:REPLACE             
 FORMAT:UNFORMATTED            ACCESS:STREAM              
 ACTION:READWRITE           

      THE LAST TIME STEP WILL BE PRINTED
      THE LAST TIME STEP WILL BE PRINTED
 # File generated by Flopy version 3.3.7 on 08/25/2023 at 16:03:16.

 PROCESSING OC OPTIONS

    BUDGET INFORMATION WILL BE WRITTEN TO:
      UNIT NUMBER: 1013
      FILE NAME: test1.cbb

 OPENED test1.cbb
 FILE TYPE:DATA(BINARY)   UNIT 1013   STATUS:REPLACE             
 FORMAT:UNFORMATTED            ACCESS:STREAM              
 ACTION:READWRITE           

    HEAD INFORMATION WILL BE WRITTEN TO:
      UNIT NUMBER: 1014
      FILE NAME: test1.hds

 OPENED test1.hds
 FILE TYPE:DATA(BINARY)   UNIT 1014   STATUS:REPLACE             
 FORMAT:UNFORMATTED            ACCESS:STREAM              
 ACTION:READWRITE           

 END OF OC OPTIONS

start timestep kper="1" kstp="1" mode="normal"


 BEGIN READING OUTPUT CONTROL FOR STRESS PERIOD 1
      ALL TIME STEPS WILL BE SAVED
      ALL TIME STEPS WILL BE SAVED
      THE LAST TIME STEP WILL BE PRINTED

 END READING OUTPUT CONTROL FOR STRESS PERIOD 1
 UBDSV1 SAVING     FLOW-JA-FACE ON UNIT   1013 AT TIME STEP      1, STRESS PERIOD      1
 UBDSV06 SAVING       DATA-SPDIS IN MODEL MODEL            PACKAGE NPF             CONNECTED TO MODEL MODEL            PACKAGE NPF              ON UNIT   1013 AT TIME STEP      1, STRESS PERIOD      1
 UBDSV06 SAVING              WEL IN MODEL MODEL            PACKAGE MODEL           CONNECTED TO MODEL MODEL            PACKAGE WEL_0            ON UNIT   1013 AT TIME STEP      1, STRESS PERIOD      1
 UBDSV06 SAVING              CHD IN MODEL MODEL            PACKAGE MODEL           CONNECTED TO MODEL MODEL            PACKAGE CHD_0            ON UNIT   1013 AT TIME STEP      1, STRESS PERIOD      1
1
  HEAD IN LAYER   1 AT END OF TIME STEP   1 IN STRESS PERIOD    1
  ---------------------------------------------------------------------------

            1           2           3           4           5           6           7           8           9          10
           11          12          13          14          15          16          17          18          19          20
           21          22          23          24          25          26          27          28          29          30
           31          32          33          34          35          36          37          38          39          40
           41          42          43          44          45          46          47          48          49          50
           51          52          53          54          55          56          57          58          59          60
           61          62          63          64          65          66          67          68          69          70
           71          72          73          74          75          76          77          78          79          80
           81          82          83          84          85          86          87          88          89          90
           91          92          93          94          95          96          97          98          99         100
          101
 ........................................................................................................................
   1    100.0       99.87       99.75       99.62       99.50       99.37       99.24       99.12       98.99       98.87    
        98.74       98.62       98.49       98.37       98.25       98.13       98.00       97.88       97.77       97.65    
        97.53       97.42       97.30       97.19       97.08       96.97       96.86       96.75       96.65       96.55    
        96.44       96.34       96.24       96.15       96.05       95.96       95.86       95.77       95.68       95.58    
        95.49       95.40       95.31       95.23       95.14       95.05       94.96       94.87       94.79       94.70    
        94.61       94.52       94.44       94.35       94.26       94.17       94.09       94.00       93.91       93.82    
        93.73       93.65       93.56       93.47       93.38       93.29       93.20       93.11       93.02       92.92    
        92.83       92.74       92.65       92.55       92.46       92.36       92.27       92.18       92.08       91.99    
        91.89       91.80       91.71       91.61       91.52       91.43       91.34       91.24       91.15       91.06    
        90.96       90.87       90.77       90.68       90.58       90.49       90.39       90.29       90.20       90.10    
        90.00    
   2    100.0       99.87       99.75       99.62       99.50       99.37       99.24       99.12       98.99       98.87    
        98.74       98.62       98.49       98.37       98.25       98.13       98.00       97.88       97.76       97.65    
        97.53       97.41       97.30       97.19       97.08       96.97       96.86       96.75       96.65       96.55    
        96.44       96.34       96.24       96.15       96.05       95.95       95.86       95.77       95.68       95.58    
        95.49       95.40       95.31       95.23       95.14       95.05       94.96       94.87       94.79       94.70    
        94.61       94.52       94.44       94.35       94.26       94.17       94.09       94.00       93.91       93.82    
        93.74       93.65       93.56       93.47       93.38       93.29       93.20       93.11       93.02       92.92    
        92.83       92.74       92.65       92.55       92.46       92.36       92.27       92.18       92.08       91.99    
        91.89       91.80       91.71       91.61       91.52       91.43       91.34       91.24       91.15       91.06    
        90.96       90.87       90.77       90.68       90.58       90.49       90.39       90.29       90.20       90.10    
        90.00    
   3    100.0       99.87       99.75       99.62       99.50       99.37       99.24       99.12       98.99       98.87    
        98.74       98.62       98.49       98.37       98.25       98.12       98.00       97.88       97.76       97.64    
        97.53       97.41       97.30       97.19       97.07       96.97       96.86       96.75       96.65       96.54    
        96.44       96.34       96.24       96.14       96.05       95.95       95.86       95.77       95.67       95.58    
        95.49       95.40       95.31       95.22       95.14       95.05       94.96       94.87       94.79       94.70    
        94.61       94.52       94.44       94.35       94.26       94.17       94.09       94.00       93.91       93.82    
        93.74       93.65       93.56       93.47       93.38       93.29       93.20       93.11       93.02       92.93    
        92.83       92.74       92.65       92.55       92.46       92.36       92.27       92.18       92.08       91.99    
        91.89       91.80       91.71       91.61       91.52       91.43       91.34       91.24       91.15       91.06    
        90.97       90.87       90.78       90.68       90.58       90.49       90.39       90.29       90.20       90.10    
        90.00    
   4    100.0       99.87       99.75       99.62       99.49       99.37       99.24       99.12       98.99       98.87    
        98.74       98.62       98.49       98.37       98.24       98.12       98.00       97.88       97.76       97.64    
        97.52       97.41       97.29       97.18       97.07       96.96       96.85       96.75       96.64       96.54    
        96.44       96.34       96.24       96.14       96.04       95.95       95.86       95.76       95.67       95.58    
        95.49       95.40       95.31       95.22       95.14       95.05       94.96       94.87       94.79       94.70    
        94.61       94.52       94.44       94.35       94.26       94.17       94.09       94.00       93.91       93.82    
        93.74       93.65       93.56       93.47       93.38       93.29       93.20       93.11       93.02       92.93    
        92.83       92.74       92.65       92.55       92.46       92.36       92.27       92.18       92.08       91.99    
        91.89       91.80       91.71       91.61       91.52       91.43       91.34       91.25       91.15       91.06    
        90.97       90.87       90.78       90.68       90.59       90.49       90.39       90.29       90.20       90.10    
        90.00    
   5    100.0       99.87       99.75       99.62       99.49       99.37       99.24       99.12       98.99       98.86    
        98.74       98.61       98.49       98.36       98.24       98.12       98.00       97.88       97.76       97.64    
        97.52       97.40       97.29       97.18       97.07       96.96       96.85       96.74       96.64       96.53    
        96.43       96.33       96.23       96.14       96.04       95.95       95.85       95.76       95.67       95.58    
        95.49       95.40       95.31       95.22       95.13       95.05       94.96       94.87       94.78       94.70    
        94.61       94.52       94.44       94.35       94.26       94.17       94.09       94.00       93.91       93.83    
        93.74       93.65       93.56       93.47       93.38       93.29       93.20       93.11       93.02       92.93    
        92.84       92.74       92.65       92.55       92.46       92.36       92.27       92.17       92.08       91.99    
        91.89       91.80       91.70       91.61       91.52       91.43       91.34       91.25       91.15       91.06    
        90.97       90.88       90.78       90.68       90.59       90.49       90.39       90.30       90.20       90.10    
        90.00    
   6    100.0       99.87       99.75       99.62       99.49       99.37       99.24       99.11       98.99       98.86    
        98.74       98.61       98.49       98.36       98.24       98.11       97.99       97.87       97.75       97.63    
        97.51       97.40       97.28       97.17       97.06       96.95       96.84       96.73       96.63       96.53    
        96.43       96.33       96.23       96.13       96.04       95.94       95.85       95.76       95.67       95.58    
        95.49       95.40       95.31       95.22       95.13       95.05       94.96       94.87       94.78       94.70    
        94.61       94.52       94.44       94.35       94.26       94.18       94.09       94.00       93.91       93.83    
        93.74       93.65       93.56       93.48       93.39       93.30       93.21       93.12       93.02       92.93    
        92.84       92.74       92.65       92.56       92.46       92.37       92.27       92.17       92.08       91.98    
        91.89       91.80       91.70       91.61       91.52       91.43       91.34       91.25       91.16       91.07    
        90.97       90.88       90.78       90.69       90.59       90.49       90.39       90.30       90.20       90.10    
        90.00    
   7    100.0       99.87       99.75       99.62       99.49       99.37       99.24       99.11       98.99       98.86    
        98.73       98.61       98.48       98.36       98.23       98.11       97.99       97.87       97.75       97.63    
        97.51       97.39       97.28       97.16       97.05       96.94       96.83       96.73       96.62       96.52    
        96.42       96.32       96.22       96.12       96.03       95.94       95.84       95.75       95.66       95.57    
        95.48       95.39       95.31       95.22       95.13       95.04       94.96       94.87       94.78       94.70    
        94.61       94.52       94.44       94.35       94.26       94.18       94.09       94.00       93.91       93.83    
        93.74       93.65       93.57       93.48       93.39       93.30       93.21       93.12       93.03       92.93    
        92.84       92.75       92.65       92.56       92.46       92.37       92.27       92.17       92.08       91.98    
        91.89       91.79       91.70       91.61       91.52       91.43       91.34       91.25       91.16       91.07    
        90.98       90.88       90.79       90.69       90.59       90.50       90.40       90.30       90.20       90.10    
        90.00    
   8    100.0       99.87       99.75       99.62       99.49       99.36       99.24       99.11       98.98       98.86    
        98.73       98.60       98.48       98.35       98.23       98.10       97.98       97.86       97.74       97.62    
        97.50       97.38       97.27       97.15       97.04       96.93       96.82       96.72       96.61       96.51    
        96.41       96.31       96.21       96.12       96.02       95.93       95.84       95.75       95.66       95.57    
        95.48       95.39       95.30       95.22       95.13       95.04       94.96       94.87       94.78       94.70    
        94.61       94.52       94.44       94.35       94.26       94.18       94.09       94.00       93.91       93.83    
        93.74       93.66       93.57       93.48       93.39       93.30       93.22       93.12       93.03       92.94    
        92.84       92.75       92.65       92.56       92.46       92.37       92.27       92.17       92.08       91.98    
        91.88       91.79       91.70       91.61       91.52       91.43       91.34       91.25       91.16       91.07    
        90.98       90.89       90.79       90.69       90.60       90.50       90.40       90.30       90.20       90.10    
        90.00    
   9    100.0       99.87       99.75       99.62       99.49       99.36       99.24       99.11       98.98       98.85    
        98.73       98.60       98.47       98.35       98.22       98.10       97.97       97.85       97.73       97.61    
        97.49       97.37       97.26       97.14       97.03       96.92       96.81       96.71       96.60       96.50    
        96.40       96.30       96.20       96.11       96.01       95.92       95.83       95.74       95.65       95.56    
        95.48       95.39       95.30       95.22       95.13       95.04       94.96       94.87       94.78       94.70    
        94.61       94.52       94.44       94.35       94.26       94.18       94.09       94.00       93.92       93.83    
        93.74       93.66       93.57       93.49       93.40       93.31       93.22       93.13       93.04       92.94    
        92.85       92.75       92.66       92.56       92.46       92.37       92.27       92.17       92.07       91.98    
        91.88       91.79       91.70       91.61       91.52       91.43       91.34       91.25       91.16       91.07    
        90.98       90.89       90.80       90.70       90.60       90.50       90.40       90.30       90.20       90.10    
        90.00    
  10    100.0       99.87       99.74       99.62       99.49       99.36       99.23       99.11       98.98       98.85    
        98.72       98.60       98.47       98.34       98.22       98.09       97.97       97.84       97.72       97.60    
        97.48       97.36       97.25       97.13       97.02       96.91       96.80       96.69       96.59       96.49    
        96.39       96.29       96.19       96.10       96.01       95.91       95.82       95.73       95.65       95.56    
        95.47       95.39       95.30       95.21       95.13       95.04       94.96       94.87       94.78       94.70    
        94.61       94.52       94.44       94.35       94.26       94.18       94.09       94.00       93.92       93.83    
        93.75       93.66       93.58       93.49       93.40       93.32       93.23       93.14       93.04       92.95    
        92.85       92.76       92.66       92.56       92.47       92.37       92.27       92.17       92.07       91.98    
        91.88       91.79       91.70       91.61       91.52       91.43       91.34       91.25       91.17       91.08    
        90.99       90.89       90.80       90.70       90.61       90.51       90.40       90.30       90.20       90.10    
        90.00    
  11    100.0       99.87       99.74       99.62       99.49       99.36       99.23       99.10       98.98       98.85    
        98.72       98.59       98.46       98.34       98.21       98.08       97.96       97.84       97.71       97.59    
        97.47       97.35       97.23       97.12       97.01       96.90       96.79       96.68       96.58       96.47    
        96.38       96.28       96.18       96.09       96.00       95.91       95.82       95.73       95.64       95.55    
        95.47       95.38       95.30       95.21       95.13       95.04       94.95       94.87       94.78       94.70    
        94.61       94.52       94.44       94.35       94.26       94.18       94.09       94.00       93.92       93.83    
        93.75       93.66       93.58       93.50       93.41       93.32       93.23       93.14       93.05       92.96    
        92.86       92.76       92.67       92.57       92.47       92.37       92.27       92.17       92.07       91.97    
        91.88       91.79       91.70       91.61       91.52       91.43       91.34       91.25       91.17       91.08    
        90.99       90.90       90.80       90.71       90.61       90.51       90.41       90.31       90.20       90.10    
        90.00    
  12    100.0       99.87       99.74       99.62       99.49       99.36       99.23       99.10       98.97       98.84    
        98.72       98.59       98.46       98.33       98.20       98.08       97.95       97.83       97.70       97.58    
        97.46       97.34       97.22       97.11       96.99       96.88       96.77       96.67       96.56       96.46    
        96.36       96.26       96.17       96.08       95.99       95.90       95.81       95.72       95.63       95.55    
        95.46       95.38       95.29       95.21       95.12       95.04       94.95       94.87       94.78       94.70    
        94.61       94.53       94.44       94.35       94.26       94.18       94.09       94.00       93.92       93.83    
        93.75       93.67       93.58       93.50       93.42       93.33       93.24       93.15       93.06       92.96    
        92.87       92.77       92.67       92.57       92.47       92.37       92.27       92.17       92.07       91.97    
        91.88       91.79       91.70       91.61       91.52       91.43       91.34       91.26       91.17       91.08    
        90.99       90.90       90.81       90.71       90.61       90.51       90.41       90.31       90.21       90.10    
        90.00    
  13    100.0       99.87       99.74       99.61       99.49       99.36       99.23       99.10       98.97       98.84    
        98.71       98.58       98.45       98.32       98.20       98.07       97.94       97.82       97.69       97.57    
        97.44       97.32       97.21       97.09       96.98       96.86       96.76       96.65       96.55       96.44    
        96.35       96.25       96.16       96.06       95.97       95.89       95.80       95.71       95.63       95.54    
        95.46       95.37       95.29       95.21       95.12       95.04       94.95       94.87       94.78       94.70    
        94.61       94.53       94.44       94.35       94.26       94.18       94.09       94.00       93.92       93.84    
        93.75       93.67       93.59       93.51       93.42       93.34       93.25       93.16       93.07       92.97    
        92.87       92.78       92.68       92.58       92.47       92.37       92.27       92.17       92.07       91.97    
        91.88       91.79       91.70       91.61       91.52       91.43       91.34       91.26       91.17       91.08    
        90.99       90.90       90.81       90.71       90.62       90.52       90.41       90.31       90.21       90.10    
        90.00    
  14    100.0       99.87       99.74       99.61       99.48       99.35       99.23       99.10       98.97       98.84    
        98.71       98.58       98.45       98.32       98.19       98.06       97.93       97.80       97.68       97.55    
        97.43       97.31       97.19       97.07       96.96       96.85       96.74       96.63       96.53       96.43    
        96.33       96.24       96.14       96.05       95.96       95.88       95.79       95.70       95.62       95.54    
        95.45       95.37       95.29       95.20       95.12       95.04       94.95       94.87       94.79       94.70    
        94.61       94.53       94.44       94.35       94.27       94.18       94.09       94.01       93.92       93.84    
        93.76       93.68       93.60       93.51       93.43       93.34       93.26       93.17       93.08       92.98    
        92.88       92.78       92.68       92.58       92.48       92.37       92.27       92.17       92.07       91.97    
        91.88       91.79       91.70       91.61       91.52       91.43       91.34       91.26       91.17       91.08    
        90.99       90.90       90.81       90.72       90.62       90.52       90.42       90.31       90.21       90.10    
        90.00    
  15    100.0       99.87       99.74       99.61       99.48       99.35       99.22       99.09       98.96       98.83    
        98.70       98.57       98.44       98.31       98.18       98.05       97.92       97.79       97.67       97.54    
        97.42       97.29       97.17       97.06       96.94       96.83       96.72       96.61       96.51       96.41    
        96.31       96.22       96.13       96.04       95.95       95.86       95.78       95.70       95.61       95.53    
        95.45       95.37       95.28       95.20       95.12       95.04       94.95       94.87       94.79       94.70    
        94.62       94.53       94.44       94.35       94.27       94.18       94.09       94.01       93.93       93.85    
        93.76       93.68       93.60       93.52       93.44       93.35       93.26       93.18       93.08       92.99    
        92.89       92.79       92.69       92.59       92.48       92.38       92.27       92.17       92.07       91.97    
        91.88       91.79       91.70       91.61       91.52       91.43       91.35       91.26       91.17       91.08    
        90.99       90.90       90.81       90.72       90.62       90.52       90.42       90.32       90.21       90.11    
        90.00    
  16    100.0       99.87       99.74       99.61       99.48       99.35       99.22       99.09       98.96       98.83    
        98.70       98.57       98.43       98.30       98.17       98.04       97.91       97.78       97.65       97.53    
        97.40       97.28       97.16       97.04       96.92       96.81       96.70       96.59       96.49       96.39    
        96.30       96.20       96.11       96.02       95.94       95.85       95.77       95.69       95.61       95.52    
        95.44       95.36       95.28       95.20       95.12       95.04       94.96       94.87       94.79       94.70    
        94.62       94.53       94.44       94.36       94.27       94.18       94.10       94.02       93.93       93.85    
        93.77       93.69       93.61       93.53       93.44       93.36       93.27       93.18       93.09       93.00    
        92.90       92.80       92.70       92.59       92.49       92.38       92.28       92.17       92.07       91.98    
        91.88       91.79       91.70       91.61       91.52       91.43       91.35       91.26       91.17       91.08    
        90.99       90.90       90.81       90.72       90.62       90.52       90.42       90.32       90.21       90.11    
        90.00    
  17    100.0       99.87       99.74       99.61       99.48       99.35       99.22       99.09       98.96       98.82    
        98.69       98.56       98.43       98.30       98.16       98.03       97.90       97.77       97.64       97.51    
        97.38       97.26       97.14       97.02       96.90       96.79       96.68       96.57       96.47       96.37    
        96.28       96.19       96.10       96.01       95.93       95.84       95.76       95.68       95.60       95.52    
        95.44       95.36       95.28       95.20       95.12       95.04       94.96       94.88       94.79       94.71    
        94.62       94.54       94.45       94.36       94.27       94.19       94.10       94.02       93.94       93.86    
        93.78       93.70       93.62       93.53       93.45       93.37       93.28       93.19       93.10       93.01    
        92.91       92.81       92.70       92.60       92.49       92.38       92.28       92.18       92.08       91.98    
        91.88       91.79       91.70       91.61       91.52       91.44       91.35       91.26       91.17       91.08    
        90.99       90.90       90.81       90.72       90.63       90.53       90.42       90.32       90.21       90.11    
        90.00    
  18    100.0       99.87       99.74       99.61       99.48       99.35       99.22       99.09       98.95       98.82    
        98.69       98.55       98.42       98.29       98.15       98.02       97.89       97.76       97.63       97.50    
        97.37       97.24       97.12       97.00       96.88       96.77       96.66       96.55       96.45       96.35    
        96.26       96.17       96.08       96.00       95.91       95.83       95.75       95.67       95.59       95.51    
        95.44       95.36       95.28       95.20       95.12       95.04       94.96       94.88       94.80       94.71    
        94.63       94.54       94.45       94.37       94.28       94.19       94.11       94.03       93.95       93.87    
        93.79       93.71       93.62       93.54       93.46       93.37       93.29       93.20       93.11       93.01    
        92.92       92.82       92.71       92.60       92.50       92.39       92.28       92.18       92.08       91.98    
        91.89       91.80       91.71       91.62       91.53       91.44       91.35       91.26       91.17       91.08    
        90.99       90.90       90.81       90.72       90.63       90.53       90.43       90.32       90.21       90.11    
        90.00    
  19    100.0       99.87       99.74       99.61       99.48       99.35       99.22       99.08       98.95       98.82    
        98.68       98.55       98.41       98.28       98.15       98.01       97.88       97.74       97.61       97.48    
        97.35       97.22       97.10       96.98       96.86       96.75       96.64       96.53       96.43       96.33    
        96.24       96.15       96.07       95.98       95.90       95.82       95.74       95.66       95.59       95.51    
        95.43       95.36       95.28       95.20       95.12       95.04       94.96       94.88       94.80       94.72    
        94.63       94.55       94.46       94.37       94.29       94.20       94.12       94.04       93.96       93.88    
        93.80       93.71       93.63       93.55       93.46       93.38       93.29       93.21       93.12       93.02    
        92.93       92.82       92.72       92.61       92.50       92.39       92.29       92.18       92.08       91.98    
        91.89       91.80       91.71       91.62       91.53       91.44       91.35       91.26       91.17       91.08    
        90.99       90.90       90.81       90.72       90.63       90.53       90.43       90.32       90.22       90.11    
        90.00    
  20    100.0       99.87       99.74       99.61       99.48       99.35       99.22       99.08       98.95       98.81    
        98.68       98.54       98.41       98.27       98.14       98.00       97.87       97.73       97.60       97.47    
        97.33       97.21       97.08       96.96       96.84       96.73       96.62       96.51       96.41       96.32    
        96.22       96.14       96.05       95.97       95.89       95.81       95.73       95.66       95.58       95.51    
        95.43       95.36       95.28       95.20       95.13       95.05       94.97       94.89       94.81       94.72    
        94.64       94.55       94.47       94.38       94.29       94.21       94.13       94.05       93.97       93.89    
        93.81       93.72       93.64       93.56       93.47       93.39       93.30       93.21       93.12       93.03    
        92.93       92.83       92.73       92.62       92.51       92.40       92.29       92.19       92.09       91.99    
        91.89       91.80       91.71       91.62       91.53       91.44       91.35       91.26       91.17       91.08    
        90.99       90.90       90.81       90.72       90.63       90.53       90.43       90.32       90.22       90.11    
        90.00    
  21    100.0       99.87       99.74       99.61       99.48       99.35       99.22       99.08       98.95       98.81    
        98.68       98.54       98.40       98.27       98.13       97.99       97.85       97.72       97.58       97.45    
        97.32       97.19       97.06       96.94       96.82       96.70       96.60       96.49       96.39       96.30    
        96.21       96.12       96.04       95.96       95.88       95.80       95.73       95.65       95.58       95.50    
        95.43       95.36       95.28       95.21       95.13       95.05       94.97       94.90       94.81       94.73    
        94.65       94.56       94.47       94.39       94.30       94.22       94.14       94.06       93.98       93.90    
        93.82       93.74       93.65       93.57       93.48       93.40       93.31       93.22       93.13       93.04    
        92.94       92.84       92.74       92.63       92.52       92.41       92.30       92.19       92.09       91.99    
        91.90       91.81       91.71       91.62       91.53       91.44       91.35       91.26       91.17       91.08    
        90.99       90.90       90.81       90.72       90.63       90.53       90.43       90.32       90.22       90.11    
        90.00    
  22    100.0       99.87       99.74       99.61       99.48       99.35       99.22       99.08       98.95       98.81    
        98.67       98.53       98.40       98.26       98.12       97.98       97.84       97.71       97.57       97.43    
        97.30       97.17       97.04       96.92       96.80       96.68       96.58       96.47       96.37       96.28    
        96.19       96.11       96.02       95.95       95.87       95.79       95.72       95.65       95.58       95.50    
        95.43       95.36       95.28       95.21       95.14       95.06       94.98       94.90       94.82       94.74    
        94.66       94.57       94.48       94.40       94.32       94.23       94.15       94.07       93.99       93.91    
        93.83       93.75       93.66       93.58       93.49       93.41       93.32       93.23       93.14       93.05    
        92.95       92.85       92.74       92.63       92.52       92.41       92.30       92.20       92.09       92.00    
        91.90       91.81       91.72       91.62       91.53       91.44       91.35       91.26       91.17       91.08    
        90.99       90.90       90.81       90.72       90.63       90.53       90.43       90.32       90.22       90.11    
        90.00    
  23    100.0       99.87       99.74       99.61       99.48       99.35       99.22       99.08       98.94       98.81    
        98.67       98.53       98.39       98.25       98.11       97.97       97.83       97.69       97.55       97.42    
        97.28       97.15       97.02       96.90       96.78       96.67       96.56       96.45       96.36       96.26    
        96.18       96.09       96.01       95.94       95.86       95.79       95.72       95.65       95.57       95.50    
        95.43       95.36       95.29       95.22       95.14       95.07       94.99       94.91       94.83       94.75    
        94.67       94.58       94.50       94.41       94.33       94.25       94.17       94.09       94.01       93.93    
        93.85       93.76       93.68       93.59       93.51       93.42       93.33       93.24       93.15       93.06    
        92.96       92.86       92.75       92.64       92.53       92.42       92.31       92.20       92.10       92.00    
        91.90       91.81       91.72       91.63       91.54       91.44       91.35       91.26       91.17       91.08    
        90.99       90.90       90.81       90.72       90.63       90.53       90.43       90.32       90.22       90.11    
        90.00    
  24    100.0       99.87       99.74       99.61       99.48       99.35       99.22       99.08       98.94       98.81    
        98.67       98.52       98.38       98.24       98.10       97.96       97.81       97.67       97.54       97.40    
        97.26       97.13       97.00       96.88       96.76       96.65       96.54       96.44       96.34       96.25    
        96.16       96.08       96.00       95.93       95.86       95.78       95.71       95.64       95.58       95.51    
        95.44       95.37       95.30       95.22       95.15       95.08       95.00       94.92       94.84       94.76    
        94.68       94.60       94.51       94.43       94.35       94.27       94.19       94.11       94.03       93.95    
        93.86       93.78       93.70       93.61       93.52       93.44       93.35       93.26       93.16       93.07    
        92.97       92.87       92.76       92.65       92.54       92.43       92.31       92.21       92.10       92.00    
        91.91       91.81       91.72       91.63       91.54       91.45       91.35       91.26       91.17       91.08    
        90.99       90.90       90.81       90.72       90.63       90.53       90.43       90.32       90.22       90.11    
        90.00    
  25    100.0       99.87       99.74       99.61       99.48       99.35       99.22       99.08       98.94       98.80    
        98.66       98.52       98.37       98.23       98.08       97.94       97.79       97.65       97.51       97.38    
        97.24       97.11       96.98       96.86       96.74       96.63       96.52       96.42       96.33       96.24    
        96.15       96.07       96.00       95.92       95.85       95.78       95.71       95.65       95.58       95.51    
        95.44       95.37       95.30       95.23       95.16       95.09       95.01       94.94       94.86       94.78    
        94.70       94.61       94.53       94.45       94.37       94.29       94.21       94.13       94.05       93.97    
        93.89       93.80       93.72       93.63       93.54       93.46       93.36       93.27       93.18       93.08    
        92.98       92.88       92.77       92.66       92.55       92.43       92.32       92.21       92.11       92.01    
        91.91       91.82       91.72       91.63       91.54       91.45       91.36       91.26       91.17       91.08    
        90.99       90.90       90.81       90.72       90.63       90.53       90.43       90.32       90.22       90.11    
        90.00    
  26    100.0       99.87       99.74       99.61       99.48       99.35       99.22       99.08       98.94       98.80    
        98.65       98.51       98.36       98.21       98.06       97.91       97.76       97.62       97.48       97.35    
        97.21       97.08       96.96       96.83       96.72       96.61       96.50       96.40       96.31       96.23    
        96.14       96.07       95.99       95.92       95.85       95.78       95.72       95.65       95.58       95.52    
        95.45       95.38       95.32       95.25       95.18       95.10       95.03       94.95       94.88       94.80    
        94.72       94.64       94.55       94.47       94.39       94.32       94.24       94.16       94.08       94.00    
        93.92       93.83       93.75       93.66       93.57       93.48       93.39       93.29       93.20       93.10    
        93.00       92.89       92.78       92.67       92.56       92.44       92.33       92.22       92.11       92.01    
        91.92       91.82       91.73       91.63       91.54       91.45       91.36       91.26       91.17       91.08    
        90.99       90.90       90.81       90.72       90.63       90.53       90.43       90.32       90.22       90.11    
        90.00    
  27    100.0       99.87       99.74       99.61       99.48       99.35       99.22       99.08       98.94       98.79    
        98.64       98.49       98.34       98.18       98.02       97.86       97.71       97.57       97.43       97.30    
        97.17       97.04       96.92       96.80       96.69       96.58       96.48       96.39       96.30       96.21    
        96.14       96.06       95.99       95.92       95.85       95.79       95.72       95.66       95.59       95.53    
        95.46       95.40       95.33       95.26       95.19       95.12       95.05       94.98       94.90       94.83    
        94.75       94.67       94.59       94.51       94.43       94.36       94.28       94.20       94.12       94.04    
        93.96       93.88       93.80       93.71       93.62       93.52       93.43       93.32       93.22       93.12    
        93.02       92.91       92.80       92.68       92.57       92.45       92.33       92.22       92.12       92.02    
        91.92       91.82       91.73       91.64       91.54       91.45       91.36       91.27       91.17       91.08    
        90.99       90.90       90.81       90.72       90.63       90.53       90.43       90.32       90.22       90.11    
        90.00    
  28    100.0       99.87       99.74       99.61       99.48       99.35       99.21       99.08       98.93       98.78    
        98.63       98.47       98.30       98.12       97.95       97.77       97.62       97.48       97.35       97.22    
        97.09       96.97       96.86       96.75       96.65       96.55       96.45       96.36       96.28       96.20    
        96.13       96.06       95.99       95.92       95.86       95.79       95.73       95.67       95.61       95.54    
        95.48       95.41       95.35       95.28       95.21       95.15       95.08       95.01       94.93       94.86    
        94.79       94.71       94.63       94.56       94.49       94.41       94.34       94.27       94.19       94.11    
        94.04       93.95       93.87       93.78       93.69       93.60       93.48       93.37       93.26       93.15    
        93.04       92.93       92.81       92.69       92.58       92.46       92.34       92.23       92.12       92.02    
        91.92       91.83       91.73       91.64       91.55       91.45       91.36       91.27       91.18       91.09    
        91.00       90.91       90.82       90.72       90.63       90.53       90.43       90.32       90.22       90.11    
        90.00    
  29    100.0       99.87       99.74       99.61       99.48       99.35       99.21       99.07       98.92       98.77    
        98.60       98.43       98.24       98.03       97.81       97.60       97.44       97.31       97.20       97.08    
        96.96       96.86       96.76       96.67       96.58       96.49       96.41       96.33       96.26       96.19    
        96.12       96.06       95.99       95.93       95.87       95.81       95.75       95.68       95.62       95.56    
        95.50       95.43       95.37       95.31       95.24       95.18       95.11       95.05       94.98       94.91    
        94.84       94.77       94.70       94.63       94.57       94.50       94.43       94.37       94.30       94.23    
        94.16       94.08       94.00       93.92       93.83       93.73       93.59       93.44       93.31       93.18    
        93.06       92.95       92.83       92.71       92.59       92.47       92.35       92.24       92.13       92.03    
        91.93       91.83       91.74       91.64       91.55       91.45       91.36       91.27       91.18       91.09    
        91.00       90.91       90.82       90.72       90.63       90.53       90.43       90.32       90.22       90.11    
        90.00    
  30    100.0       99.87       99.74       99.61       99.48       99.34       99.21       99.06       98.91       98.75    
        98.57       98.37       98.14       97.87       97.56       97.20       97.07       96.98       96.90       96.82    
        96.72       96.65       96.59       96.53       96.46       96.40       96.34       96.28       96.23       96.17    
        96.11       96.05       96.00       95.94       95.88       95.82       95.76       95.70       95.64       95.58    
        95.52       95.46       95.40       95.34       95.28       95.21       95.15       95.10       95.04       94.98    
        94.92       94.86       94.80       94.75       94.69       94.64       94.59       94.53       94.48       94.43    
        94.38       94.30       94.24       94.18       94.11       94.02       93.77       93.56       93.39       93.24    
        93.10       92.97       92.85       92.72       92.60       92.48       92.36       92.24       92.14       92.03    
        91.93       91.84       91.74       91.64       91.55       91.46       91.36       91.27       91.18       91.09    
        91.00       90.91       90.82       90.72       90.63       90.53       90.43       90.32       90.22       90.11    
        90.00    
  31    100.0       99.87       99.74       99.61       99.48       99.34       99.20       99.05       98.89       98.72    
        98.52       98.28       97.99       97.60       97.08       96.64       96.63       96.61       96.58       96.55    
        96.52       96.49       96.46       96.42       96.38       96.34       96.30       96.25       96.21       96.16    
        96.11       96.05       96.00       95.95       95.89       95.83       95.78       95.72       95.66       95.60    
        95.54       95.47       95.41       95.35       95.29       95.24       95.18       95.12       95.07       95.02    
        94.96       94.91       94.87       94.82       94.78       94.74       94.70       94.66       94.62       94.59    
        94.56       94.52       94.49       94.46       94.44       94.42       94.11       93.76       93.51       93.32    
        93.16       93.01       92.87       92.74       92.61       92.49       92.37       92.25       92.14       92.04    
        91.94       91.84       91.74       91.65       91.55       91.46       91.36       91.27       91.18       91.09    
        91.00       90.91       90.82       90.73       90.63       90.53       90.43       90.32       90.22       90.11    
        90.00    
  32    100.0       99.87       99.74       99.61       99.47       99.33       99.19       99.03       98.86       98.67    
        98.44       98.15       97.75       97.15       96.67       96.66       96.64       96.61       96.59       96.56    
        96.53       96.50       96.46       96.42       96.38       96.34       96.30       96.26       96.21       96.16    
        96.11       96.06       96.00       95.95       95.89       95.84       95.78       95.72       95.66       95.60    
        95.54       95.47       95.41       95.35       95.29       95.23       95.18       95.12       95.07       95.01    
        94.96       94.91       94.86       94.82       94.77       94.73       94.69       94.65       94.62       94.58    
        94.55       94.52       94.49       94.46       94.43       94.41       94.39       94.07       93.70       93.44    
        93.23       93.06       92.91       92.77       92.63       92.50       92.38       92.26       92.15       92.04    
        91.94       91.84       91.75       91.65       91.55       91.46       91.37       91.27       91.18       91.09    
        91.00       90.91       90.82       90.73       90.63       90.53       90.43       90.32       90.22       90.11    
        90.00    
  33    100.0       99.87       99.74       99.60       99.47       99.32       99.17       99.01       98.83       98.61    
        98.34       97.97       97.39       96.71       96.69       96.67       96.65       96.62       96.60       96.57    
        96.54       96.50       96.47       96.43       96.39       96.35       96.31       96.27       96.22       96.17    
        96.12       96.06       96.01       95.95       95.90       95.84       95.78       95.72       95.66       95.60    
        95.54       95.48       95.41       95.35       95.29       95.23       95.17       95.12       95.06       95.01    
        94.96       94.91       94.86       94.81       94.77       94.72       94.68       94.64       94.61       94.57    
        94.54       94.51       94.48       94.45       94.42       94.39       94.37       94.35       94.02       93.63    
        93.35       93.13       92.95       92.80       92.65       92.52       92.39       92.27       92.16       92.05    
        91.95       91.85       91.75       91.65       91.56       91.46       91.37       91.27       91.18       91.09    
        91.00       90.91       90.82       90.73       90.63       90.53       90.43       90.32       90.22       90.11    
        90.00    
  34    100.0       99.87       99.73       99.60       99.46       99.31       99.15       98.98       98.77       98.52    
        98.19       97.75       97.16       96.72       96.71       96.69       96.67       96.64       96.61       96.58    
        96.55       96.52       96.48       96.45       96.41       96.37       96.32       96.28       96.23       96.18    
        96.13       96.07       96.02       95.96       95.90       95.85       95.79       95.72       95.66       95.60    
        95.54       95.48       95.41       95.35       95.29       95.23       95.17       95.11       95.06       95.00    
        94.95       94.90       94.85       94.80       94.76       94.71       94.67       94.63       94.60       94.56    
        94.53       94.49       94.46       94.43       94.40       94.37       94.35       94.32       94.30       93.95    
        93.52       93.23       93.01       92.83       92.68       92.54       92.40       92.28       92.17       92.06    
        91.95       91.85       91.75       91.65       91.56       91.46       91.37       91.28       91.18       91.09    
        91.00       90.91       90.82       90.73       90.63       90.53       90.43       90.32       90.21       90.11    
        90.00    
  35    100.0       99.87       99.73       99.59       99.45       99.30       99.13       98.94       98.70       98.39    
        97.95       97.29       96.78       96.75       96.73       96.71       96.68       96.66       96.63       96.60    
        96.57       96.53       96.50       96.46       96.42       96.38       96.34       96.29       96.24       96.19    
        96.14       96.08       96.03       95.97       95.91       95.85       95.79       95.73       95.67       95.60    
        95.54       95.48       95.41       95.35       95.29       95.23       95.17       95.11       95.05       94.99    
        94.94       94.89       94.84       94.79       94.74       94.70       94.66       94.62       94.58       94.55    
        94.51       94.48       94.45       94.41       94.38       94.35       94.33       94.30       94.28       94.26    
        93.77       93.35       93.09       92.88       92.71       92.56       92.42       92.29       92.18       92.06    
        91.96       91.85       91.76       91.66       91.56       91.47       91.37       91.28       91.19       91.10    
        91.00       90.91       90.82       90.73       90.63       90.53       90.43       90.32       90.21       90.11    
        90.00    
  36    100.0       99.86       99.73       99.58       99.44       99.28       99.10       98.88       98.61       98.22    
        97.58       96.83       96.80       96.78       96.76       96.73       96.71       96.68       96.65       96.62    
        96.59       96.55       96.52       96.48       96.44       96.40       96.35       96.31       96.26       96.20    
        96.15       96.10       96.04       95.98       95.92       95.86       95.80       95.73       95.67       95.61    
        95.54       95.48       95.41       95.35       95.28       95.22       95.16       95.10       95.04       94.99    
        94.93       94.88       94.83       94.78       94.73       94.68       94.64       94.60       94.56       94.53    
        94.49       94.46       94.43       94.39       94.36       94.33       94.30       94.28       94.25       94.23    
        93.92       93.50       93.19       92.95       92.75       92.59       92.44       92.31       92.19       92.07    
        91.96       91.86       91.76       91.66       91.56       91.47       91.37       91.28       91.19       91.10    
        91.01       90.91       90.82       90.73       90.63       90.53       90.42       90.32       90.21       90.11    
        90.00    
  37    100.0       99.86       99.72       99.58       99.42       99.25       99.06       98.82       98.49       98.03    
        97.33       96.85       96.83       96.81       96.78       96.76       96.73       96.70       96.67       96.64    
        96.61       96.58       96.54       96.50       96.46       96.42       96.37       96.32       96.27       96.22    
        96.17       96.11       96.05       95.99       95.93       95.87       95.81       95.74       95.68       95.61    
        95.54       95.48       95.41       95.34       95.28       95.22       95.15       95.09       95.03       94.98    
        94.92       94.87       94.81       94.76       94.71       94.67       94.62       94.58       94.54       94.51    
        94.47       94.44       94.40       94.37       94.34       94.31       94.28       94.25       94.22       94.20    
        94.16       93.81       93.35       93.04       92.81       92.62       92.47       92.33       92.20       92.08    
        91.97       91.86       91.76       91.66       91.57       91.47       91.38       91.28       91.19       91.10    
        91.01       90.91       90.82       90.73       90.63       90.53       90.42       90.32       90.21       90.11    
        90.00    
  38    100.0       99.86       99.72       99.57       99.40       99.22       99.01       98.73       98.33       97.67    
        96.91       96.88       96.86       96.84       96.81       96.79       96.76       96.73       96.70       96.67    
        96.64       96.60       96.57       96.53       96.48       96.44       96.39       96.34       96.29       96.24    
        96.18       96.13       96.07       96.01       95.94       95.88       95.81       95.75       95.68       95.61    
        95.54       95.48       95.41       95.34       95.27       95.21       95.15       95.08       95.02       94.96    
        94.91       94.85       94.80       94.75       94.70       94.65       94.60       94.56       94.52       94.48    
        94.45       94.41       94.38       94.34       94.31       94.28       94.25       94.22       94.19       94.16    
        94.13       94.10       93.60       93.16       92.88       92.67       92.50       92.35       92.21       92.09    
        91.98       91.87       91.77       91.67       91.57       91.47       91.38       91.28       91.19       91.10    
        91.01       90.92       90.82       90.72       90.63       90.52       90.42       90.32       90.21       90.11    
        90.00    
  39    100.0       99.86       99.71       99.55       99.38       99.18       98.94       98.61       98.14       97.43    
        96.93       96.92       96.89       96.87       96.84       96.82       96.79       96.76       96.73       96.70    
        96.66       96.63       96.59       96.55       96.51       96.46       96.41       96.36       96.31       96.26    
        96.20       96.14       96.08       96.02       95.96       95.89       95.82       95.76       95.69       95.62    
        95.55       95.48       95.41       95.34       95.27       95.20       95.14       95.07       95.01       94.95    
        94.89       94.84       94.78       94.73       94.68       94.63       94.58       94.54       94.50       94.46    
        94.42       94.39       94.35       94.32       94.28       94.25       94.22       94.19       94.16       94.13    
        94.10       94.08       93.75       93.31       92.98       92.73       92.54       92.37       92.23       92.10    
        91.99       91.88       91.77       91.67       91.57       91.47       91.38       91.29       91.19       91.10    
        91.01       90.91       90.82       90.72       90.62       90.52       90.42       90.31       90.21       90.10    
        90.00    
  40    100.0       99.85       99.70       99.53       99.35       99.13       98.85       98.45       97.78       97.01    
        96.98       96.95       96.93       96.90       96.88       96.85       96.82       96.79       96.76       96.73    
        96.69       96.66       96.62       96.58       96.53       96.49       96.44       96.39       96.33       96.28    
        96.22       96.16       96.10       96.04       95.97       95.91       95.84       95.77       95.69       95.62    
        95.55       95.48       95.40       95.33       95.26       95.19       95.12       95.06       95.00       94.94    
        94.88       94.82       94.77       94.71       94.66       94.61       94.56       94.52       94.47       94.43    
        94.39       94.36       94.32       94.29       94.25       94.22       94.19       94.15       94.12       94.09    
        94.06       94.03       93.99       93.62       93.14       92.82       92.59       92.41       92.25       92.12    
        92.00       91.88       91.78       91.67       91.57       91.48       91.38       91.29       91.19       91.10    
        91.01       90.91       90.82       90.72       90.62       90.52       90.41       90.31       90.21       90.10    
        90.00    
  41    100.0       99.85       99.69       99.51       99.31       99.07       98.73       98.26       97.54       97.04    
        97.02       96.99       96.97       96.94       96.91       96.88       96.85       96.82       96.79       96.76    
        96.73       96.69       96.65       96.60       96.56       96.51       96.46       96.41       96.36       96.30    
        96.24       96.18       96.12       96.06       95.99       95.92       95.85       95.78       95.70       95.63    
        95.55       95.47       95.40       95.32       95.25       95.18       95.11       95.05       94.98       94.92    
        94.86       94.80       94.75       94.69       94.64       94.59       94.54       94.50       94.45       94.41    
        94.37       94.33       94.29       94.26       94.22       94.19       94.15       94.12       94.09       94.05    
        94.02       93.99       93.96       93.92       93.40       92.94       92.65       92.45       92.28       92.14    
        92.01       91.89       91.78       91.68       91.58       91.48       91.38       91.29       91.19       91.10    
        91.01       90.91       90.82       90.72       90.62       90.51       90.41       90.31       90.21       90.10    
        90.00    
  42    100.0       99.84       99.67       99.49       99.26       98.98       98.57       97.90       97.11       97.08    
        97.06       97.03       97.00       96.98       96.95       96.92       96.89       96.86       96.83       96.79    
        96.76       96.72       96.68       96.63       96.59       96.54       96.49       96.43       96.38       96.33    
        96.27       96.21       96.15       96.08       96.01       95.94       95.87       95.79       95.71       95.63    
        95.55       95.47       95.39       95.32       95.24       95.17       95.10       95.03       94.96       94.90    
        94.84       94.78       94.73       94.67       94.62       94.57       94.52       94.47       94.43       94.38    
        94.34       94.30       94.26       94.22       94.19       94.15       94.12       94.08       94.05       94.02    
        93.98       93.95       93.92       93.89       93.55       93.06       92.73       92.49       92.31       92.16    
        92.02       91.90       91.79       91.68       91.58       91.48       91.38       91.29       91.19       91.10    
        91.01       90.91       90.81       90.71       90.61       90.51       90.41       90.31       90.20       90.10    
        90.00    
  43    100.0       99.83       99.65       99.45       99.20       98.87       98.38       97.66       97.15       97.12    
        97.10       97.07       97.04       97.02       96.99       96.96       96.93       96.90       96.86       96.83    
        96.79       96.75       96.71       96.66       96.61       96.57       96.51       96.46       96.41       96.35    
        96.29       96.23       96.17       96.10       96.03       95.96       95.88       95.80       95.72       95.64    
        95.56       95.47       95.39       95.31       95.23       95.16       95.08       95.01       94.95       94.88    
        94.82       94.76       94.71       94.65       94.60       94.55       94.50       94.45       94.40       94.35    
        94.31       94.27       94.23       94.19       94.15       94.12       94.08       94.04       94.01       93.97    
        93.94       93.90       93.87       93.84       93.80       93.29       92.83       92.55       92.35       92.18    
        92.04       91.92       91.80       91.69       91.59       91.49       91.39       91.29       91.19       91.10    
        91.00       90.91       90.81       90.71       90.61       90.51       90.41       90.30       90.20       90.10    
        90.00    
  44    100.0       99.82       99.63       99.41       99.12       98.71       98.02       97.23       97.20       97.17    
        97.14       97.11       97.09       97.06       97.03       97.00       96.97       96.94       96.90       96.87    
        96.83       96.78       96.74       96.69       96.64       96.59       96.54       96.49       96.44       96.38    
        96.32       96.26       96.19       96.12       96.05       95.98       95.90       95.82       95.73       95.65    
        95.56       95.47       95.38       95.30       95.22       95.14       95.07       95.00       94.93       94.86    
        94.80       94.74       94.68       94.63       94.57       94.52       94.47       94.42       94.37       94.33    
        94.28       94.24       94.20       94.16       94.12       94.08       94.04       94.01       93.97       93.93    
        93.89       93.86       93.83       93.79       93.77       93.42       92.95       92.63       92.39       92.21    
        92.06       91.93       91.81       91.70       91.59       91.49       91.39       91.29       91.19       91.10    
        91.00       90.90       90.80       90.71       90.60       90.50       90.40       90.30       90.20       90.10    
        90.00    
  45    100.0       99.81       99.61       99.36       99.02       98.53       97.79       97.26       97.24       97.22    
        97.19       97.16       97.13       97.10       97.07       97.04       97.01       96.97       96.94       96.90    
        96.86       96.82       96.77       96.72       96.68       96.63       96.57       96.52       96.46       96.41    
        96.35       96.29       96.22       96.15       96.08       96.00       95.92       95.83       95.75       95.66    
        95.56       95.47       95.38       95.29       95.20       95.12       95.05       94.98       94.91       94.84    
        94.78       94.72       94.66       94.60       94.55       94.50       94.45       94.40       94.35       94.30    
        94.25       94.21       94.16       94.12       94.08       94.04       94.00       93.97       93.93       93.89    
        93.85       93.82       93.78       93.74       93.70       93.66       93.16       92.73       92.46       92.25    
        92.09       91.95       91.82       91.71       91.60       91.49       91.39       91.29       91.19       91.10    
        91.00       90.90       90.80       90.70       90.60       90.50       90.40       90.30       90.20       90.10    
        90.00    
  46    100.0       99.80       99.58       99.30       98.90       98.20       97.35       97.32       97.29       97.26    
        97.23       97.20       97.18       97.15       97.11       97.08       97.05       97.02       96.98       96.94    
        96.90       96.85       96.81       96.76       96.71       96.66       96.60       96.55       96.50       96.44    
        96.38       96.31       96.25       96.18       96.10       96.02       95.94       95.85       95.76       95.67    
        95.56       95.46       95.37       95.28       95.19       95.11       95.03       94.96       94.89       94.82    
        94.76       94.70       94.64       94.58       94.53       94.47       94.42       94.37       94.32       94.27    
        94.22       94.17       94.13       94.09       94.04       94.00       93.96       93.92       93.88       93.84    
        93.80       93.77       93.73       93.69       93.65       93.61       93.28       92.85       92.54       92.31    
        92.12       91.97       91.84       91.72       91.60       91.50       91.39       91.29       91.19       91.09    
        90.99       90.89       90.80       90.70       90.59       90.49       90.39       90.29       90.20       90.10    
        90.00    
  47    100.0       99.79       99.55       99.24       98.81       98.10       97.39       97.37       97.34       97.31    
        97.28       97.25       97.22       97.19       97.16       97.13       97.09       97.06       97.02       96.98    
        96.93       96.89       96.84       96.79       96.74       96.69       96.64       96.58       96.53       96.47    
        96.41       96.34       96.28       96.20       96.13       96.05       95.96       95.87       95.78       95.68    
        95.57       95.45       95.36       95.27       95.17       95.09       95.01       94.94       94.87       94.80    
        94.74       94.67       94.61       94.56       94.50       94.45       94.39       94.34       94.29       94.24    
        94.19       94.14       94.09       94.05       94.00       93.96       93.92       93.88       93.84       93.80    
        93.76       93.72       93.68       93.63       93.58       93.54       93.48       93.12       92.68       92.38    
        92.16       92.00       91.85       91.73       91.61       91.50       91.40       91.29       91.19       91.09    
        90.99       90.89       90.79       90.69       90.59       90.49       90.39       90.29       90.19       90.09    
        90.00    
  48    100.0       99.77       99.51       99.17       98.68       97.94       97.44       97.42       97.40       97.37    
        97.33       97.30       97.27       97.24       97.21       97.17       97.14       97.10       97.06       97.02    
        96.97       96.92       96.87       96.82       96.77       96.72       96.67       96.61       96.56       96.50    
        96.44       96.37       96.30       96.23       96.16       96.08       96.00       95.89       95.79       95.69    
        95.57       95.46       95.35       95.25       95.15       95.07       94.99       94.92       94.85       94.78    
        94.71       94.65       94.59       94.53       94.47       94.42       94.37       94.31       94.26       94.21    
        94.16       94.11       94.06       94.01       93.97       93.92       93.88       93.84       93.79       93.75    
        93.71       93.66       93.62       93.57       93.52       93.47       93.42       93.37       92.89       92.47    
        92.21       92.03       91.87       91.74       91.62       91.51       91.40       91.29       91.19       91.09    
        90.99       90.89       90.78       90.68       90.58       90.48       90.37       90.27       90.17       90.08    
        90.00    
  49    100.0       99.76       99.48       99.08       98.38       97.55       97.51       97.48       97.45       97.42    
        97.39       97.36       97.32       97.29       97.25       97.22       97.18       97.14       97.10       97.06    
        97.01       96.96       96.91       96.86       96.81       96.75       96.70       96.64       96.59       96.53    
        96.47       96.40       96.33       96.26       96.19       96.11       96.02       95.92       95.81       95.69    
        95.57       95.45       95.34       95.24       95.14       95.04       94.97       94.90       94.83       94.76    
        94.69       94.63       94.57       94.51       94.45       94.39       94.34       94.29       94.23       94.18    
        94.13       94.08       94.02       93.98       93.93       93.88       93.84       93.79       93.75       93.70    
        93.66       93.61       93.56       93.52       93.46       93.41       93.36       93.32       92.99       92.56    
        92.27       92.06       91.90       91.75       91.63       91.51       91.40       91.29       91.19       91.09    
        90.98       90.88       90.78       90.67       90.57       90.46       90.35       90.24       90.15       90.05    
        90.00    
  50    100.0       99.75       99.45       99.03       98.33       97.59       97.57       97.54       97.51       97.47    
        97.44       97.41       97.37       97.34       97.30       97.27       97.23       97.19       97.14       97.10    
        97.05       97.00       96.95       96.89       96.84       96.79       96.73       96.67       96.61       96.55    
        96.49       96.42       96.36       96.29       96.21       96.13       96.04       95.95       95.85       95.71    
        95.58       95.45       95.31       95.22       95.12       95.04       94.95       94.88       94.81       94.75    
        94.68       94.61       94.55       94.49       94.43       94.37       94.31       94.26       94.20       94.15    
        94.09       94.04       93.99       93.94       93.89       93.84       93.79       93.74       93.70       93.65    
        93.60       93.55       93.51       93.46       93.40       93.35       93.29       93.24       93.18       92.73    
        92.35       92.10       91.92       91.77       91.64       91.52       91.40       91.29       91.19       91.08    
        90.98       90.87       90.77       90.66       90.54       90.42       90.30       90.17       90.09       90.01    
        90.00    
  51    100.0       99.73       99.41       98.98       98.31       97.66       97.64       97.61       97.58       97.54    
        97.50       97.47       97.43       97.39       97.36       97.32       97.28       97.23       97.19       97.14    
        97.09       97.04       96.98       96.93       96.88       96.82       96.76       96.70       96.64       96.58    
        96.51       96.45       96.38       96.31       96.23       96.14       96.07       95.99       95.92       95.75    
        95.58       95.42       95.25       95.19       95.10       95.03       94.95       94.87       94.80       94.73    
        94.67       94.60       94.53       94.47       94.41       94.35       94.29       94.23       94.17       94.12    
        94.06       94.01       93.95       93.90       93.85       93.80       93.75       93.70       93.65       93.60    
        93.55       93.50       93.45       93.39       93.34       93.28       93.22       93.16       93.11       92.80    
        92.43       92.16       91.96       91.80       91.66       91.53       91.41       91.30       91.19       91.08    
        90.97       90.86       90.75       90.63       90.51       90.37       90.20       90.07       90.05       90.02    
        90.00    
  52    100.0       99.71       99.37       98.89       98.21       97.74       97.71       97.68       97.64       97.60    
        97.57       97.53       97.48       97.45       97.41       97.37       97.32       97.28       97.23       97.18    
        97.13       97.07       97.02       96.96       96.91       96.85       96.79       96.73       96.66       96.60    
        96.53       96.46       96.39       96.32       96.23       96.15       96.09       96.04       95.90       95.73    
        95.59       95.46       95.32       95.19       95.07       95.02       94.95       94.88       94.79       94.72    
        94.66       94.59       94.52       94.45       94.39       94.33       94.26       94.20       94.14       94.09    
        94.03       93.97       93.92       93.86       93.81       93.75       93.70       93.65       93.60       93.55    
        93.50       93.44       93.39       93.33       93.27       93.21       93.14       93.08       93.01       92.92    
        92.60       92.26       92.02       91.83       91.68       91.54       91.42       91.30       91.18       91.07    
        90.96       90.84       90.72       90.60       90.45       90.27       90.12       90.09       90.06       90.03    
        90.00    
  53    100.0       99.68       99.29       98.64       97.90       97.84       97.80       97.76       97.71       97.67    
        97.63       97.59       97.55       97.50       97.46       97.42       97.37       97.33       97.28       97.22    
        97.17       97.11       97.06       97.00       96.94       96.88       96.82       96.75       96.68       96.62    
        96.54       96.47       96.40       96.32       96.23       96.15       96.09       95.98       95.84       95.71    
        95.60       95.48       95.36       95.23       95.09       95.04       94.97       94.89       94.80       94.72    
        94.65       94.58       94.51       94.44       94.37       94.31       94.24       94.17       94.11       94.05    
        93.99       93.94       93.88       93.82       93.77       93.71       93.66       93.60       93.55       93.50    
        93.44       93.39       93.33       93.27       93.20       93.14       93.07       93.00       92.92       92.83    
        92.74       92.43       92.11       91.88       91.71       91.56       91.42       91.30       91.18       91.06    
        90.94       90.82       90.68       90.54       90.35       90.19       90.15       90.11       90.07       90.03    
        90.00    
  54    100.0       99.66       99.23       98.60       97.96       97.93       97.88       97.84       97.79       97.74    
        97.70       97.65       97.61       97.56       97.52       97.47       97.42       97.37       97.32       97.27    
        97.21       97.15       97.09       97.03       96.97       96.91       96.84       96.77       96.70       96.63    
        96.56       96.48       96.40       96.31       96.22       96.13       96.03       95.92       95.81       95.70    
        95.60       95.49       95.39       95.28       95.16       95.07       94.99       94.90       94.82       94.73    
        94.65       94.58       94.50       94.43       94.36       94.29       94.22       94.15       94.08       94.02    
        93.96       93.90       93.84       93.78       93.73       93.67       93.61       93.56       93.50       93.44    
        93.39       93.33       93.27       93.20       93.14       93.07       93.00       92.92       92.84       92.74    
        92.65       92.55       92.25       91.95       91.75       91.58       91.44       91.30       91.17       91.04    
        90.91       90.77       90.60       90.46       90.28       90.23       90.17       90.13       90.08       90.03    
        90.00    
  55    100.0       99.62       99.16       98.52       98.05       98.02       97.97       97.91       97.87       97.82    
        97.77       97.72       97.67       97.62       97.58       97.53       97.48       97.42       97.37       97.31    
        97.25       97.19       97.13       97.07       97.01       96.94       96.87       96.79       96.72       96.65    
        96.57       96.49       96.40       96.31       96.22       96.12       96.02       95.92       95.81       95.70    
[...]
        90.00    
  88    100.0       99.86       99.71       99.66       99.63       99.57       99.48       99.35       99.23       99.20    
        99.17       99.09       98.94       98.80       98.76       98.73       98.68       98.59       98.43       98.28    
        98.23       98.16       98.04       97.83       97.61       97.55       97.50       97.41       97.21       96.98    
        96.91       96.85       96.77       96.63       96.41       96.21       96.16       96.07       95.91       95.67    
        95.45       95.39       95.34       95.26       95.12       94.92       94.73       94.68       94.61       94.48    
        94.27       94.07       94.01       93.96       93.88       93.69       93.48       93.42       93.37       93.30    
        93.19       93.02       92.87       92.83       92.77       92.66       92.51       92.38       92.34       92.30    
        92.25       92.17       92.04       91.94       91.92       91.87       91.79       91.66       91.54       91.51    
        91.48       91.42       91.28       91.14       91.10       91.07       91.02       90.94       90.82       90.70    
        90.67       90.62       90.53       90.40       90.28       90.25       90.22       90.17       90.09       90.02    
        90.00    
  89    100.0       99.86       99.71       99.67       99.63       99.58       99.49       99.36       99.24       99.21    
        99.18       99.11       98.96       98.82       98.78       98.75       98.70       98.60       98.44       98.29    
        98.24       98.17       98.05       97.83       97.62       97.56       97.51       97.42       97.21       96.99    
        96.92       96.86       96.78       96.63       96.42       96.22       96.16       96.07       95.92       95.68    
        95.46       95.39       95.34       95.27       95.13       94.92       94.74       94.68       94.62       94.49    
        94.28       94.08       94.02       93.97       93.89       93.70       93.49       93.43       93.38       93.31    
        93.19       93.03       92.88       92.83       92.77       92.66       92.51       92.37       92.33       92.30    
        92.25       92.16       92.03       91.94       91.91       91.87       91.78       91.66       91.54       91.50    
        91.47       91.42       91.27       91.13       91.09       91.06       91.01       90.94       90.81       90.70    
        90.67       90.62       90.53       90.40       90.28       90.24       90.22       90.17       90.09       90.02    
        90.00    
  90    100.0       99.86       99.72       99.67       99.64       99.59       99.50       99.37       99.26       99.22    
        99.20       99.12       98.97       98.83       98.79       98.76       98.71       98.61       98.45       98.30    
        98.25       98.18       98.05       97.84       97.63       97.56       97.51       97.42       97.22       96.99    
        96.92       96.87       96.78       96.64       96.43       96.23       96.17       96.08       95.92       95.69    
        95.47       95.40       95.35       95.27       95.14       94.93       94.74       94.69       94.62       94.49    
        94.29       94.09       94.03       93.98       93.90       93.71       93.50       93.43       93.38       93.31    
        93.20       93.03       92.88       92.84       92.77       92.66       92.51       92.37       92.33       92.30    
        92.24       92.16       92.03       91.93       91.90       91.86       91.78       91.65       91.53       91.49    
        91.46       91.41       91.27       91.13       91.09       91.06       91.01       90.93       90.81       90.70    
        90.67       90.61       90.53       90.40       90.28       90.24       90.22       90.17       90.09       90.02    
        90.00    
  91    100.0       99.87       99.72       99.68       99.65       99.59       99.51       99.38       99.27       99.23    
        99.21       99.13       98.98       98.84       98.80       98.77       98.72       98.62       98.46       98.31    
        98.26       98.19       98.06       97.85       97.63       97.57       97.52       97.43       97.22       97.00    
        96.93       96.87       96.79       96.65       96.43       96.23       96.18       96.09       95.93       95.69    
        95.47       95.41       95.36       95.28       95.14       94.94       94.75       94.70       94.63       94.50    
        94.29       94.09       94.03       93.99       93.90       93.72       93.51       93.44       93.39       93.32    
        93.21       93.04       92.89       92.84       92.78       92.67       92.51       92.37       92.33       92.29    
        92.24       92.15       92.02       91.92       91.90       91.86       91.77       91.64       91.52       91.49    
        91.46       91.40       91.26       91.12       91.08       91.05       91.01       90.93       90.81       90.70    
        90.66       90.61       90.53       90.40       90.28       90.24       90.21       90.17       90.09       90.02    
        90.00    
  92    100.0       99.87       99.73       99.68       99.65       99.60       99.52       99.39       99.28       99.24    
        99.22       99.14       98.99       98.85       98.81       98.78       98.73       98.63       98.47       98.31    
        98.27       98.19       98.06       97.85       97.64       97.57       97.52       97.43       97.23       97.00    
        96.93       96.88       96.79       96.65       96.44       96.24       96.18       96.09       95.94       95.70    
        95.48       95.41       95.36       95.28       95.15       94.94       94.76       94.70       94.64       94.51    
        94.30       94.10       94.04       93.99       93.91       93.72       93.51       93.45       93.40       93.33    
        93.21       93.05       92.89       92.85       92.78       92.67       92.51       92.37       92.33       92.29    
        92.24       92.15       92.02       91.92       91.90       91.85       91.77       91.64       91.52       91.48    
        91.45       91.40       91.26       91.12       91.08       91.05       91.00       90.93       90.81       90.69    
        90.66       90.61       90.52       90.40       90.28       90.24       90.21       90.17       90.09       90.02    
        90.00    
  93    100.0       99.87       99.73       99.69       99.66       99.61       99.52       99.40       99.29       99.25    
        99.23       99.15       99.00       98.86       98.82       98.79       98.74       98.64       98.48       98.32    
        98.27       98.20       98.07       97.85       97.64       97.58       97.53       97.44       97.23       97.01    
        96.94       96.88       96.80       96.65       96.44       96.24       96.19       96.10       95.94       95.70    
        95.48       95.42       95.37       95.29       95.16       94.95       94.76       94.71       94.64       94.51    
        94.31       94.11       94.05       94.00       93.92       93.73       93.52       93.46       93.41       93.34    
        93.22       93.05       92.90       92.86       92.79       92.68       92.52       92.37       92.33       92.29    
        92.24       92.15       92.02       91.92       91.89       91.85       91.77       91.64       91.52       91.48    
        91.45       91.40       91.26       91.12       91.08       91.05       91.00       90.92       90.80       90.69    
        90.66       90.61       90.52       90.40       90.28       90.24       90.21       90.17       90.09       90.02    
        90.00    
  94    100.0       99.87       99.74       99.69       99.66       99.61       99.53       99.41       99.29       99.26    
        99.23       99.16       99.01       98.87       98.83       98.79       98.74       98.64       98.48       98.32    
        98.27       98.20       98.07       97.86       97.64       97.58       97.53       97.44       97.24       97.01    
        96.94       96.88       96.80       96.66       96.44       96.25       96.19       96.10       95.94       95.71    
        95.49       95.42       95.37       95.29       95.16       94.96       94.77       94.72       94.65       94.52    
        94.31       94.11       94.05       94.01       93.93       93.74       93.53       93.46       93.41       93.34    
        93.23       93.06       92.91       92.86       92.80       92.68       92.52       92.37       92.33       92.30    
        92.24       92.15       92.02       91.92       91.89       91.85       91.76       91.64       91.51       91.48    
        91.45       91.40       91.25       91.12       91.08       91.05       91.00       90.92       90.80       90.69    
        90.66       90.61       90.52       90.40       90.28       90.24       90.21       90.17       90.09       90.02    
        90.00    
  95    100.0       99.87       99.74       99.70       99.66       99.62       99.54       99.41       99.30       99.27    
        99.24       99.17       99.01       98.87       98.83       98.80       98.75       98.65       98.48       98.32    
        98.27       98.20       98.07       97.86       97.65       97.58       97.53       97.44       97.24       97.01    
        96.94       96.89       96.80       96.66       96.45       96.25       96.19       96.10       95.95       95.71    
        95.49       95.43       95.38       95.30       95.17       94.96       94.77       94.72       94.65       94.52    
        94.32       94.12       94.06       94.01       93.93       93.74       93.53       93.47       93.42       93.35    
        93.24       93.07       92.91       92.87       92.80       92.69       92.53       92.38       92.33       92.30    
        92.25       92.16       92.02       91.92       91.89       91.85       91.76       91.63       91.51       91.48    
        91.45       91.39       91.25       91.11       91.07       91.04       91.00       90.92       90.80       90.69    
        90.66       90.61       90.52       90.39       90.28       90.24       90.21       90.17       90.09       90.02    
        90.00    
  96    100.0       99.87       99.74       99.70       99.67       99.62       99.54       99.42       99.31       99.27    
        99.25       99.17       99.02       98.88       98.84       98.80       98.75       98.65       98.49       98.32    
        98.28       98.20       98.07       97.86       97.65       97.58       97.53       97.44       97.24       97.02    
        96.95       96.89       96.81       96.66       96.45       96.25       96.20       96.11       95.95       95.72    
        95.49       95.43       95.38       95.30       95.17       94.96       94.78       94.72       94.66       94.53    
        94.32       94.12       94.06       94.02       93.94       93.75       93.54       93.47       93.43       93.36    
        93.24       93.07       92.92       92.88       92.81       92.70       92.53       92.38       92.34       92.30    
        92.25       92.16       92.02       91.92       91.89       91.85       91.76       91.63       91.51       91.47    
        91.45       91.39       91.25       91.11       91.07       91.04       91.00       90.92       90.80       90.69    
        90.66       90.61       90.52       90.39       90.28       90.24       90.21       90.17       90.09       90.02    
        90.00    
  97    100.0       99.88       99.74       99.70       99.67       99.62       99.54       99.42       99.31       99.28    
        99.25       99.18       99.02       98.88       98.84       98.81       98.75       98.65       98.49       98.32    
        98.28       98.20       98.07       97.86       97.65       97.58       97.53       97.44       97.24       97.02    
        96.95       96.89       96.81       96.67       96.45       96.26       96.20       96.11       95.95       95.72    
        95.50       95.43       95.38       95.31       95.17       94.97       94.78       94.73       94.66       94.53    
        94.33       94.13       94.07       94.02       93.94       93.75       93.54       93.48       93.43       93.36    
        93.25       93.08       92.93       92.88       92.81       92.70       92.53       92.38       92.34       92.30    
        92.25       92.16       92.02       91.92       91.89       91.85       91.76       91.63       91.51       91.47    
        91.44       91.39       91.25       91.11       91.07       91.04       91.00       90.92       90.80       90.69    
        90.66       90.60       90.52       90.39       90.28       90.24       90.21       90.17       90.09       90.02    
        90.00    
  98    100.0       99.88       99.75       99.70       99.67       99.63       99.55       99.43       99.32       99.28    
        99.26       99.18       99.03       98.89       98.84       98.81       98.76       98.65       98.49       98.33    
        98.28       98.20       98.07       97.86       97.65       97.58       97.53       97.44       97.24       97.02    
        96.95       96.89       96.81       96.67       96.45       96.26       96.20       96.11       95.96       95.72    
        95.50       95.43       95.38       95.31       95.17       94.97       94.78       94.73       94.66       94.54    
        94.33       94.13       94.07       94.02       93.94       93.76       93.55       93.48       93.44       93.37    
        93.25       93.08       92.93       92.89       92.82       92.70       92.54       92.39       92.34       92.31    
        92.25       92.16       92.02       91.92       91.89       91.85       91.76       91.63       91.51       91.47    
        91.44       91.39       91.25       91.11       91.07       91.04       90.99       90.92       90.80       90.69    
        90.65       90.60       90.52       90.39       90.27       90.24       90.21       90.17       90.09       90.02    
        90.00    
  99    100.0       99.88       99.75       99.71       99.68       99.63       99.55       99.43       99.32       99.29    
        99.26       99.19       99.03       98.89       98.85       98.81       98.76       98.66       98.49       98.33    
        98.28       98.20       98.07       97.86       97.65       97.58       97.53       97.45       97.24       97.02    
        96.95       96.89       96.81       96.67       96.46       96.26       96.20       96.11       95.96       95.72    
        95.50       95.44       95.39       95.31       95.18       94.97       94.78       94.73       94.67       94.54    
        94.33       94.13       94.07       94.03       93.95       93.76       93.55       93.49       93.44       93.37    
        93.26       93.09       92.93       92.89       92.82       92.71       92.54       92.39       92.34       92.31    
        92.26       92.16       92.03       91.92       91.89       91.85       91.76       91.63       91.51       91.47    
        91.44       91.39       91.25       91.11       91.07       91.04       90.99       90.92       90.80       90.69    
        90.65       90.60       90.52       90.39       90.27       90.24       90.21       90.17       90.09       90.02    
        90.00    
 100    100.0       99.88       99.75       99.71       99.68       99.63       99.55       99.43       99.32       99.29    
        99.26       99.19       99.03       98.89       98.85       98.81       98.76       98.66       98.49       98.33    
        98.28       98.20       98.07       97.86       97.65       97.58       97.53       97.45       97.24       97.02    
        96.95       96.89       96.81       96.67       96.46       96.26       96.20       96.11       95.96       95.72    
        95.50       95.44       95.39       95.31       95.18       94.97       94.79       94.73       94.67       94.54    
        94.33       94.13       94.07       94.03       93.95       93.76       93.55       93.49       93.44       93.37    
        93.26       93.09       92.94       92.89       92.82       92.71       92.54       92.39       92.34       92.31    
        92.26       92.16       92.03       91.92       91.89       91.85       91.76       91.63       91.51       91.47    
        91.44       91.39       91.25       91.11       91.07       91.04       90.99       90.92       90.80       90.69    
        90.65       90.60       90.52       90.39       90.27       90.24       90.21       90.17       90.09       90.02    
        90.00    
 101    100.0       99.88       99.75       99.71       99.68       99.63       99.55       99.43       99.32       99.29    
        99.26       99.19       99.03       98.89       98.85       98.81       98.76       98.66       98.49       98.33    
        98.28       98.20       98.07       97.86       97.65       97.59       97.53       97.45       97.24       97.02    
        96.95       96.89       96.81       96.67       96.46       96.26       96.20       96.12       95.96       95.72    
        95.50       95.44       95.39       95.31       95.18       94.97       94.79       94.74       94.67       94.54    
        94.33       94.13       94.08       94.03       93.95       93.76       93.55       93.49       93.44       93.37    
        93.26       93.09       92.94       92.89       92.82       92.71       92.54       92.39       92.34       92.31    
        92.26       92.17       92.03       91.92       91.89       91.85       91.76       91.63       91.51       91.47    
        91.44       91.39       91.25       91.11       91.07       91.04       90.99       90.91       90.80       90.69    
        90.65       90.60       90.52       90.39       90.27       90.24       90.21       90.17       90.09       90.02    
        90.00    

 HEAD WILL BE SAVED ON UNIT 1014 AT END OF TIME STEP    1, STRESS PERIOD    1


  VOLUME BUDGET FOR ENTIRE MODEL AT END OF TIME STEP    1, STRESS PERIOD   1
  ---------------------------------------------------------------------------------------------------

     CUMULATIVE VOLUME      L**3       RATES FOR THIS TIME STEP      L**3/T          PACKAGE NAME    
     ------------------                 ------------------------                     ----------------

           IN:                                      IN:
           ---                                      ---
                 WEL =           0.0000                   WEL =           0.0000     WEL_0                            
                 CHD =       4.3073E-02                   CHD =       4.3073E-02     CHD_0                            

            TOTAL IN =       4.3073E-02              TOTAL IN =       4.3073E-02

          OUT:                                     OUT:
          ----                                     ----
                 WEL =       2.3148E-03                   WEL =       2.3148E-03     WEL_0                            
                 CHD =       4.0730E-02                   CHD =       4.0730E-02     CHD_0                            

           TOTAL OUT =       4.3045E-02             TOTAL OUT =       4.3045E-02

            IN - OUT =       2.7957E-05              IN - OUT =       2.7957E-05

 PERCENT DISCREPANCY =           0.06     PERCENT DISCREPANCY =           0.06




         TIME SUMMARY AT END OF TIME STEP    1 IN STRESS PERIOD    1
                    SECONDS     MINUTES      HOURS       DAYS        YEARS
                    -----------------------------------------------------------
   TIME STEP LENGTH  1.0000     1.66667E-02 2.77778E-04 1.15741E-05 3.16881E-08
 STRESS PERIOD TIME  1.0000     1.66667E-02 2.77778E-04 1.15741E-05 3.16881E-08
         TOTAL TIME  1.0000     1.66667E-02 2.77778E-04 1.15741E-05 3.16881E-08


end timestep

